! PBE0 Grid4 D3BJ def2-svp PAL2
! TightOpt
! CPCM(water)

* xyz 2 2
6       -1.348964000     -1.216547000      1.767921000
6       -0.793241000     -2.018350000      0.585841000
7        0.435766000     -1.439387000      0.022000000
6        1.465256000     -1.219853000      1.056662000
6        0.980369000     -0.412148000      2.267102000
6       -1.710147000      0.221504000      1.374759000
7       -0.565227000      1.033147000      0.923059000
6        0.551349000      1.007921000      1.879576000
6       -0.247920000     -1.123960000      2.813571000
6        2.096399000     -0.336247000      3.294351000
6       -2.588511000     -1.909975000      2.307409000
8       -0.338237000     -1.557559000      3.933844000
6       -0.988781000      2.416831000      0.595950000
6        0.970471000     -2.265517000     -1.089070000
6       -1.608330000      2.367004000     -0.768236000
6       -2.987064000      2.311503000     -0.963259000
6       -3.502912000      2.094204000     -2.242025000
6       -2.650362000      1.920540000     -3.335310000
6       -1.273613000      1.990281000     -3.157007000
6       -0.739707000      2.208589000     -1.874158000
6        1.787717000     -1.353378000     -1.952919000
6        1.094758000     -0.447037000     -2.785182000
6        1.804380000      0.536564000     -3.496225000
6        3.186418000      0.616828000     -3.376717000
6        3.870144000     -0.291862000     -2.563222000
6        3.176367000     -1.269542000     -1.850118000
29       0.038969000      0.320425000     -0.890416000
1       -0.570990000     -3.047961000      0.917349000
1       -1.547698000     -2.090922000     -0.212416000
1        2.331266000     -0.717685000      0.599838000
1        1.809325000     -2.208903000      1.405821000
1       -2.160706000      0.724312000      2.248629000
1       -2.474265000      0.209188000      0.582710000
1        0.243970000      1.553859000      2.788773000
1        1.400116000      1.553736000      1.439631000
1        2.399526000     -1.344416000      3.608722000
1        2.971820000      0.178865000      2.873744000
1        1.759512000      0.210349000      4.185732000
1       -3.375197000     -1.944277000      1.540076000
1       -2.350443000     -2.937867000      2.613763000
1       -2.976317000     -1.375645000      3.185353000
1       -0.094188000      3.054666000      0.596394000
1       -1.680809000      2.787816000      1.367151000
1        1.551787000     -3.107804000     -0.683845000
1        0.117088000     -2.671640000     -1.649947000
1       -3.661799000      2.433196000     -0.112972000
1       -4.584909000      2.051965000     -2.385403000
1       -3.063807000      1.750656000     -4.331162000
1       -0.612966000      1.910305000     -4.021721000
1        0.327224000      2.462274000     -1.765608000
1        0.033342000     -0.627663000     -3.018475000
1        1.280262000      1.214036000     -4.171489000
1        3.738380000      1.377621000     -3.931891000
1        4.957629000     -0.234073000     -2.479323000
1        3.714501000     -1.968964000     -1.206616000
*