! PBE0 Grid4 D3BJ def2-svp PAL3
! TightOpt
! CPCM(water)

* xyz 0 2
6       -1.216833426     -1.004596120      2.125595692
6       -0.685415133     -1.815038572      0.938242812
7        0.140651033     -1.018104661      0.018414532
6        1.231062279     -0.317811110      0.724928897
6        0.768848476      0.524178834      1.920788043
6       -2.103313010      0.164995714      1.679244838
7       -1.408017563      1.176525353      0.862537371
6       -0.173081750      1.658125174      1.499167747
6       -0.016503817     -0.400385491      2.838612179
6        1.984670548      1.113682598      2.614175692
6       -2.020042528     -1.916515428      3.037530324
8        0.274074695     -0.624047754      3.986094714
6       -2.384437978      2.292677083      0.820250357
6        0.978442915     -1.978805297     -0.741872129
6       -3.554864253      1.973932662     -0.060562601
6       -4.746341530      1.449983339      0.437313668
6       -5.737909840      1.012470183     -0.442422101
6       -5.547425189      1.083826529     -1.824773955
6       -4.370414085      1.619723427     -2.334237351
6       -3.362558727      2.064436131     -1.459666745
6        2.255910239     -1.242795561     -1.011112875
6        2.236138842     -0.242435912     -2.007705846
6        3.356896752      0.585825136     -2.193452451
6        4.481363242      0.420316869     -1.394117958
6        4.502395236     -0.581043039     -0.418511037
6        3.394995709     -1.406269534     -0.222629587
29      -0.991596788      0.345782147     -0.953550868
1       -0.073886204     -2.653718191      1.315125734
1       -1.521791869     -2.252899598      0.372170401
1        1.769903977      0.320969064      0.009077165
1        1.945185899     -1.079533479      1.083149324
1       -2.503247486      0.668162418      2.577211295
1       -2.967105328     -0.218018204      1.114857745
1       -0.447926391      2.250208331      2.389711005
1        0.339016427      2.335953348      0.799042429
1        2.660155426      0.315556110      2.951568823
1        2.535414168      1.774123584      1.929258385
1        1.678734066      1.694425087      3.495062265
1       -2.892307369     -2.322127715      2.505098035
1       -1.399695972     -2.753659956      3.386027525
1       -2.371654302     -1.364676173      3.919873968
1       -1.833813732      3.217052717      0.597825211
1       -2.867734449      2.403610886      1.802798991
1        1.129973829     -2.894336040     -0.149905218
1        0.437944530     -2.245908237     -1.660729550
1       -4.899717089      1.377988408      1.516367493
1       -6.668493714      0.602980144     -0.043184763
1       -6.328856188      0.738554313     -2.504237889
1       -4.248682055      1.725565018     -3.413385066
1       -2.527695112      2.666180087     -1.853859460
1        1.424559647     -0.234918084     -2.752647450
1        3.363737369      1.333716346     -2.987342495
1        5.353483265      1.060314036     -1.540734807
1        5.391446095     -0.716739957      0.201309222
1        3.412488894     -2.178826105      0.549202320
17      -1.893831237      0.218861333     -3.347228038
17      -0.140595257      1.828739921     -2.658144769
*