! PBE0 Grid4 D3BJ def2-svp
! SP Freq
! CPCM(Acetonitrile)
%pal nprocs 1
end
* xyz 1 2
6        0.439783000      2.389669000     -3.276024000
6       -0.725860000      3.223460000     -2.722101000
7       -0.480641000      3.774937000     -1.379437000
6        0.783029000      4.529931000     -1.312987000
6        1.996529000      3.731606000     -1.813909000
6        0.750068000      1.164142000     -2.404033000
7        1.149546000      1.496929000     -1.028184000
6        2.263396000      2.461888000     -0.991355000
6        1.676534000      3.282770000     -3.232438000
6        3.225954000      4.624460000     -1.766934000
6        0.101090000      1.926120000     -4.694280000
8        2.325344000      3.600717000     -4.196304000
6        1.415687000      0.275070000     -0.204743000
6       -1.646962000      4.558067000     -0.863472000
6        2.621852000     -0.518771000     -0.630681000
17      -1.128083000      2.122451000      1.933666000
6        2.504377000     -1.536526000     -1.585528000
6        3.626825000     -2.255719000     -1.993609000
6        4.877610000     -1.968777000     -1.445955000
6        5.001282000     -0.967548000     -0.481965000
6       -1.964106000      5.803861000     -1.646398000
6        3.878586000     -0.248819000     -0.074666000
6       -1.379934000      7.027800000     -1.297066000
6       -1.656528000      8.179013000     -2.032849000
6       -2.525833000      8.119129000     -3.122720000
6       -3.125210000      6.907420000     -3.468046000
29      -0.321005000      2.343285000     -0.035133000
6       -2.848172000      5.756771000     -2.731440000
1       -0.908767000      4.058908000     -3.418799000
1       -1.639242000      2.611032000     -2.683872000
1        0.689927000      5.439562000     -1.930240000
1        0.943676000      4.848914000     -0.271125000
1        1.568208000      0.600474000     -2.884236000
1       -0.130114000      0.505458000     -2.358801000
1        3.169427000      1.976430000     -1.391968000
1        2.465284000      2.724053000      0.059115000
1        3.105787000      5.476417000     -2.449607000
1        3.383760000      5.006081000     -0.748058000
1        4.121251000      4.066760000     -2.074435000
1       -0.870111000      2.320554000     -5.023378000
1        0.868708000      2.278089000     -5.395629000
1        0.053290000      0.830275000     -4.756067000
1        0.507942000     -0.343435000     -0.259954000
1        1.532478000      0.614639000      0.835165000
1       -1.418668000      4.809506000      0.182160000
1       -2.507521000      3.874181000     -0.866059000
1        1.524346000     -1.777356000     -2.006118000
1        3.522101000     -3.048306000     -2.738267000
1        5.757158000     -2.533499000     -1.764674000
1        5.976029000     -0.748168000     -0.039865000
1        3.978144000      0.525689000      0.690670000
1       -0.709278000      7.082406000     -0.435192000
1       -1.195450000      9.128075000     -1.749347000
1       -2.744252000      9.021556000     -3.698907000
1       -3.817493000      6.857754000     -4.311830000
1       -3.333345000      4.813571000     -2.996881000
*