! PBE0 Grid4 D3BJ def2-svp PAL3
! TightOpt
! CPCM(water)

* xyz 1 2
6       -0.410244000      0.599726000      2.263012000
6        0.366310000     -0.643409000      1.579443000
7        1.162770000     -0.298345000      0.345476000
6        2.060945000      0.773632000      0.681190000
6        1.319358000      2.076871000      1.170803000
6       -1.552448000      1.248515000      1.377829000
7       -0.974681000      1.763044000      0.110568000
6        0.216610000      2.624957000      0.203951000
6        0.648997000      1.658976000      2.466155000
6        2.377165000      3.159658000      1.377383000
6       -1.025296000      0.130813000      3.582906000
8        0.971932000      2.089766000      3.549376000
6       -2.550594747      1.428307682     -0.444061714
6        1.513819177     -1.774497322     -0.088445870
6       -3.056513450      2.422366166     -1.428245943
17       0.875901000      1.091861000     -2.928464000
6       -4.184943791      2.107215007     -2.208424979
6       -4.750053662      3.090396154     -3.008278806
6       -4.216232563      4.384674895     -3.017255622
6       -3.113642398      4.699266684     -2.219168808
6        2.436866726     -2.494148697      0.849295784
6       -2.535135510      3.727163806     -1.410183875
6        3.781418970     -2.108026925      0.914045460
6        4.647128866     -2.757167395      1.788784338
6        4.178058268     -3.797527367      2.595749162
6        2.841368969     -4.187575486      2.526316744
29      -0.134077000      0.369500000     -0.998016000
6        1.969509587     -3.537328560      1.652681054
1        1.059633000     -1.020755000      2.348878000
1       -0.355179000     -1.438739000      1.363653000
1        2.756417000      0.459107000      1.479089000
1        2.643905000      1.059239000     -0.208679000
1       -2.148262000      2.016760000      1.900016000
1       -2.303778000      0.477699000      1.219895000
1       -0.141492000      3.576702000      0.628511000
1        0.668545000      2.793219000     -0.783887000
1        3.382694000      2.789414000      1.134341000
1        2.183136000      4.032624000      0.738048000
1        2.378584000      3.489940000      2.423852000
1       -0.853758000     -0.942409000      3.750688000
1       -0.583395000      0.679578000      4.424413000
1       -2.112061000      0.294191000      3.598125000
1       -3.048378947      0.663127932      0.202845975
1       -2.979231577      0.824505187     -1.490014202
1        2.037767085     -1.723981814     -1.144748604
1        0.444846907     -2.337446929     -0.194792803
1       -4.594177949      1.094495444     -2.197533862
1       -5.615115973      2.851793770     -3.630864586
1       -4.670804890      5.154641536     -3.644813558
1       -2.710768272      5.714518199     -2.219467091
1       -1.682759673      3.953638100     -0.768854034
1        4.145742020     -1.294908329      0.280403965
1        5.695225360     -2.453321999      1.839752682
1        4.860717007     -4.307006412      3.279979733
1        2.472251668     -5.001736343      3.154123254
1        0.921631296     -3.844703214      1.595127611
*