! PBE0 Grid4 D3BJ def2-svp
! SP Freq
! CPCM(Acetonitrile)
%pal nprocs 1
end
* xyz 2 2
6       -0.980089000     -1.672786000      2.032359000
6        0.526149000     -1.967247000      1.957052000
7        1.323058000     -0.833381000      1.457838000
6        1.058932000      0.414004000      2.195212000
6       -0.432944000      0.773427000      2.277271000
6       -1.593930000     -1.363716000      0.658115000
7       -1.027041000     -0.164235000      0.018334000
6       -1.058332000      1.018788000      0.895345000
6       -1.148457000     -0.424342000      2.886666000
6       -0.596326000      2.023705000      3.125260000
6       -1.690206000     -2.873936000      2.633793000
8       -1.769980000     -0.388500000      3.916140000
6       -1.558680000      0.091405000     -1.356502000
6        2.778973000     -1.144246000      1.303980000
6       -3.030693000      0.408742000     -1.392747000
6       -3.469858000      1.732511000     -1.274226000
6       -4.833298000      2.021858000     -1.278281000
6       -5.765720000      0.991818000     -1.406568000
6       -5.333042000     -0.327962000     -1.540266000
6       -3.970058000     -0.619154000     -1.535529000
6        3.471557000     -1.472157000      2.600723000
6        4.039703000     -0.454647000      3.376302000
6        4.652390000     -0.757803000      4.590997000
6        4.706532000     -2.079242000      5.035676000
6        4.155231000     -3.099275000      4.259520000
6        3.541470000     -2.797706000      3.045123000
29       0.835204000     -0.546709000     -0.409626000
1        0.882870000     -2.217375000      2.970754000
1        0.716119000     -2.839867000      1.314379000
1        1.626235000      1.229876000      1.721918000
1        1.443681000      0.292338000      3.222195000
1       -2.677373000     -1.200774000      0.789826000
1       -1.466818000     -2.219556000     -0.022552000
1       -2.113017000      1.310638000      1.037692000
1       -0.548288000      1.849764000      0.383921000
1       -0.184539000      1.859610000      4.130169000
1       -0.073682000      2.873343000      2.663489000
1       -1.659797000      2.277564000      3.229851000
1       -1.553713000     -3.759700000      1.997359000
1       -1.290885000     -3.092411000      3.633346000
1       -2.765376000     -2.672325000      2.732411000
1       -1.351984000     -0.812361000     -1.950260000
1       -0.979169000      0.930162000     -1.771023000
1        2.852101000     -1.997288000      0.611359000
1        3.243463000     -0.264162000      0.834261000
1       -2.742371000      2.543984000     -1.188715000
1       -5.167688000      3.057780000     -1.186495000
1       -6.834368000      1.219490000     -1.410839000
1       -6.059397000     -1.135810000     -1.654822000
1       -3.634598000     -1.652833000     -1.654816000
1        4.013939000      0.580284000      3.024956000
1        5.094332000      0.042235000      5.189336000
1        5.188054000     -2.316380000      5.987416000
1        4.207252000     -4.136764000      4.597592000
1        3.122208000     -3.601202000      2.433631000
*