55
Coordinates from ORCA-job CuL E -2715.867228242170
  C      -1.348964     -1.216547      1.767921
  C      -0.793241     -2.018350      0.585841
  N       0.435766     -1.439387      0.022000
  C       1.465256     -1.219853      1.056662
  C       0.980369     -0.412148      2.267102
  C      -1.710147      0.221504      1.374759
  N      -0.565227      1.033147      0.923059
  C       0.551349      1.007921      1.879576
  C      -0.247920     -1.123960      2.813571
  C       2.096399     -0.336247      3.294351
  C      -2.588511     -1.909975      2.307409
  O      -0.338237     -1.557559      3.933844
  C      -0.988781      2.416831      0.595950
  C       0.970471     -2.265517     -1.089070
  C      -1.608330      2.367004     -0.768236
  C      -2.987064      2.311503     -0.963259
  C      -3.502912      2.094204     -2.242025
  C      -2.650362      1.920540     -3.335310
  C      -1.273613      1.990281     -3.157007
  C      -0.739707      2.208589     -1.874158
  C       1.787717     -1.353378     -1.952919
  C       1.094758     -0.447037     -2.785182
  C       1.804380      0.536564     -3.496225
  C       3.186418      0.616828     -3.376717
  C       3.870144     -0.291862     -2.563222
  C       3.176367     -1.269542     -1.850118
  Cu      0.038969      0.320425     -0.890416
  H      -0.570990     -3.047961      0.917349
  H      -1.547698     -2.090922     -0.212416
  H       2.331266     -0.717685      0.599838
  H       1.809325     -2.208903      1.405821
  H      -2.160706      0.724312      2.248629
  H      -2.474265      0.209188      0.582710
  H       0.243970      1.553859      2.788773
  H       1.400116      1.553736      1.439631
  H       2.399526     -1.344416      3.608722
  H       2.971820      0.178865      2.873744
  H       1.759512      0.210349      4.185732
  H      -3.375197     -1.944277      1.540076
  H      -2.350443     -2.937867      2.613763
  H      -2.976317     -1.375645      3.185353
  H      -0.094188      3.054666      0.596394
  H      -1.680809      2.787816      1.367151
  H       1.551787     -3.107804     -0.683845
  H       0.117088     -2.671640     -1.649947
  H      -3.661799      2.433196     -0.112972
  H      -4.584909      2.051965     -2.385403
  H      -3.063807      1.750656     -4.331162
  H      -0.612966      1.910305     -4.021721
  H       0.327224      2.462274     -1.765608
  H       0.033342     -0.627663     -3.018475
  H       1.280262      1.214036     -4.171489
  H       3.738380      1.377621     -3.931891
  H       4.957629     -0.234073     -2.479323
  H       3.714501     -1.968964     -1.206616
55
Coordinates from ORCA-job CuL E -2715.866975225593
  C      -1.349922     -1.215120      1.767286
  C      -0.795047     -2.016493      0.584186
  N       0.435210     -1.439564      0.020299
  C       1.465015     -1.220307      1.054682
  C       0.980459     -0.412012      2.265084
  C      -1.710718      0.223400      1.374489
  N      -0.565013      1.033136      0.920241
  C       0.551298      1.007814      1.876991
  C      -0.247782     -1.123476      2.811430
  C       2.096777     -0.335858      3.292806
  C      -2.588771     -1.908995      2.307900
  O      -0.337021     -1.558323      3.931120
  C      -0.987437      2.417435      0.593977
  C       0.969805     -2.265673     -1.091292
  C      -1.609420      2.366158     -0.768544
  C      -2.988500      2.308680     -0.959576
  C      -3.507481      2.091245     -2.236757
  C      -2.657405      1.918794     -3.332190
  C      -1.280608      1.989216     -3.157416
  C      -0.743266      2.208055     -1.875999
  C       1.789208     -1.353614     -1.953068
  C       1.098682     -0.445039     -2.785654
  C       1.812154      0.537950     -3.494175
  C       3.193915      0.616512     -3.370976
  C       3.874251     -0.294448     -2.557861
  C       3.177345     -1.271758     -1.847188
  Cu      0.038978      0.320845     -0.892080
  H      -0.574597     -3.046765      0.915434
  H      -1.548992     -2.084839     -0.214796
  H       2.330579     -0.718087      0.596600
  H       1.809157     -2.209326      1.403823
  H      -2.157614      0.727135      2.249538
  H      -2.476006      0.211685      0.583109
  H       0.243152      1.553995      2.786222
  H       1.399882      1.553123      1.436890
  H       2.399249     -1.344017      3.607457
  H       2.972423      0.179070      2.872183
  H       1.760109      0.211332      4.183843
  H      -3.375601     -1.944090      1.540808
  H      -2.349875     -2.936544      2.614484
  H      -2.976271     -1.374173      3.185720
  H      -0.092091      3.054678      0.592526
  H      -1.678314      2.789033      1.365754
  H       1.550363     -3.107947     -0.685707
  H       0.116368     -2.670364     -1.652892
  H      -3.660455      2.429532     -0.107121
  H      -4.589838      2.049045     -2.377473
  H      -3.073015      1.749021     -4.327131
  H      -0.622806      1.909700     -4.023674
  H       0.323666      2.461772     -1.770154
  H       0.038337     -0.625831     -3.023020
  H       1.291274      1.217491     -4.169931
  H       3.748248      1.377178     -3.923909
  H       4.961668     -0.238484     -2.471625
  H       3.713294     -1.972883     -1.203673
55
Coordinates from ORCA-job CuL E -2715.867143451673
  C      -1.350915     -1.212376      1.766536
  C      -0.797854     -2.012893      0.581484
  N       0.434991     -1.439528      0.018743
  C       1.465153     -1.221177      1.053253
  C       0.981030     -0.412174      2.263387
  C      -1.710225      0.226857      1.374967
  N      -0.563387      1.033305      0.916543
  C       0.552956      1.007688      1.874250
  C      -0.247553     -1.122967      2.809164
  C       2.097024     -0.336935      3.291944
  C      -2.589533     -1.906080      2.307667
  O      -0.335603     -1.560819      3.927672
  C      -0.986445      2.417991      0.591784
  C       0.969519     -2.265573     -1.093480
  C      -1.611878      2.364608     -0.768852
  C      -2.991602      2.303496     -0.955663
  C      -3.513374      2.085832     -2.231444
  C      -2.665350      1.915066     -3.329016
  C      -1.288575      1.987355     -3.157930
  C      -0.748252      2.207883     -1.877969
  C       1.791343     -1.353569     -1.953207
  C       1.103094     -0.441889     -2.785762
  C       1.820406      0.540519     -3.491298
  C       3.202037      0.616780     -3.364737
  C       3.878963     -0.297248     -2.552755
  C       3.178843     -1.274442     -1.844683
  Cu      0.039707      0.322145     -0.893576
  H      -0.581291     -3.044199      0.911581
  H      -1.550852     -2.073369     -0.218973
  H       2.330462     -0.719268      0.594126
  H       1.808682     -2.210284      1.402587
  H      -2.150655      0.732160      2.252266
  H      -2.476876      0.216754      0.585038
  H       0.243745      1.553785      2.783243
  H       1.402726      1.552180      1.434655
  H       2.397156     -1.345668      3.606795
  H       2.973464      0.176843      2.871598
  H       1.760399      0.211375      4.182307
  H      -3.375826     -1.942255      1.540060
  H      -2.350100     -2.933104      2.615291
  H      -2.977159     -1.369825      3.184550
  H      -0.091479      3.054583      0.587582
  H      -1.675003      2.789684      1.365257
  H       1.549319     -3.107806     -0.687292
  H       0.115530     -2.669013     -1.655276
  H      -3.661159      2.422200     -0.100790
  H      -4.595996      2.042387     -2.369586
  H      -3.082834      1.744734     -4.323054
  H      -0.633007      1.907396     -4.025926
  H       0.318782      2.461984     -1.774915
  H       0.044030     -0.623667     -3.029193
  H       1.302612      1.223490     -4.166434
  H       3.758744      1.377606     -3.914974
  H       4.966378     -0.243782     -2.464736
  H       3.712689     -1.977771     -1.201807
55
Coordinates from ORCA-job CuL E -2715.867147044483
  C      -1.350948     -1.212347      1.766825
  C      -0.798618     -2.012220      0.580932
  N       0.435167     -1.439740      0.019399
  C       1.465225     -1.221698      1.054055
  C       0.981023     -0.412387      2.263848
  C      -1.709812      0.227163      1.376192
  N      -0.562795      1.032998      0.916123
  C       0.553266      1.007531      1.874244
  C      -0.247350     -1.123845      2.809242
  C       2.096750     -0.337048      3.292598
  C      -2.589604     -1.906204      2.307673
  O      -0.335376     -1.562204      3.927648
  C      -0.986429      2.417933      0.591804
  C       0.969929     -2.265656     -1.092790
  C      -1.612215      2.364430     -0.768837
  C      -2.991857      2.302618     -0.956516
  C      -3.512517      2.085182     -2.232883
  C      -2.663568      1.915410     -3.330026
  C      -1.286887      1.988321     -3.158039
  C      -0.748109      2.208667     -1.877520
  C       1.791558     -1.353500     -1.952619
  C       1.102266     -0.442114     -2.784726
  C       1.818310      0.540261     -3.491225
  C       3.200134      0.617204     -3.365859
  C       3.878167     -0.296382     -2.554172
  C       3.179103     -1.274021     -1.845347
  Cu      0.040222      0.322577     -0.892887
  H      -0.583566     -3.044080      0.910054
  H      -1.551361     -2.070006     -0.219981
  H       2.330578     -0.719999      0.594952
  H       1.808449     -2.210862      1.403545
  H      -2.148117      0.732705      2.254372
  H      -2.477280      0.217558      0.587222
  H       0.243542      1.553714      2.782911
  H       1.403188      1.551782      1.434896
  H       2.396350     -1.345834      3.607778
  H       2.973350      0.176412      2.872236
  H       1.759971      0.211738      4.182618
  H      -3.375357     -1.943200      1.539553
  H      -2.349848     -2.932919      2.616124
  H      -2.977945     -1.369388      3.183890
  H      -0.091184      3.054509      0.586993
  H      -1.674418      2.789624      1.365863
  H       1.549963     -3.107737     -0.686391
  H       0.115784     -2.669043     -1.654345
  H      -3.661936      2.420512     -0.102031
  H      -4.595008      2.040878     -2.371836
  H      -3.080269      1.745113     -4.324423
  H      -0.630164      1.908229     -4.025315
  H       0.318833      2.462598     -1.773455
  H       0.043549     -0.625582     -3.028428
  H       1.299294      1.222591     -4.166169
  H       3.755988      1.378206     -3.916750
  H       4.965644     -0.242488     -2.467157
  H       3.713934     -1.976957     -1.202863
55
Coordinates from ORCA-job CuL E -2715.867144276503
  C      -1.350639     -1.212721      1.767045
  C      -0.799144     -2.011614      0.580097
  N       0.436122     -1.440262      0.021003
  C       1.465540     -1.222736      1.056149
  C       0.980933     -0.412573      2.265142
  C      -1.708883      0.227142      1.377856
  N      -0.561735      1.032209      0.915486
  C       0.553805      1.007290      1.874455
  C      -0.247328     -1.124863      2.809900
  C       2.096033     -0.336769      3.294313
  C      -2.589676     -1.906641      2.307015
  O      -0.334910     -1.565638      3.927530
  C      -0.986359      2.417472      0.591930
  C       0.971167     -2.266127     -1.090871
  C      -1.612440      2.364469     -0.768825
  C      -2.991850      2.301857     -0.958428
  C      -3.510401      2.084871     -2.235853
  C      -2.659975      1.916940     -3.332131
  C      -1.283360      1.990783     -3.158422
  C      -0.747298      2.210456     -1.876797
  C       1.791709     -1.353663     -1.951302
  C       1.099922     -0.443176     -2.782264
  C       1.813156      0.539325     -3.491059
  C       3.195291      0.617784     -3.368557
  C       3.875894     -0.294608     -2.557512
  C       3.179422     -1.273052     -1.846929
  Cu      0.041635      0.323370     -0.891275
  H      -0.586561     -3.044513      0.907417
  H      -1.551520     -2.065941     -0.221461
  H       2.331511     -0.721837      0.597504
  H       1.807798     -2.212044      1.406188
  H      -2.144340      0.733040      2.257197
  H      -2.477851      0.218279      0.590527
  H       0.243357      1.553927      2.782422
  H       1.404158      1.551083      1.435472
  H       2.394783     -1.345457      3.610660
  H       2.973044      0.175817      2.873822
  H       1.758921      0.213180      4.183508
  H      -3.373941     -1.946012      1.537496
  H      -2.349346     -2.932408      2.618108
  H      -2.980263     -1.368308      3.181309
  H      -0.090828      3.053908      0.586231
  H      -1.673259      2.788979      1.367084
  H       1.551777     -3.107832     -0.684195
  H       0.116957     -2.669831     -1.652056
  H      -3.663223      2.418634     -0.104857
  H      -4.592633      2.039195     -2.376357
  H      -3.075441      1.747262     -4.327181
  H      -0.624726      1.911713     -4.024351
  H       0.319611      2.464063     -1.770685
  H       0.041601     -0.629495     -3.025565
  H       1.291581      1.219579     -4.165893
  H       3.749208      1.378994     -3.921141
  H       4.963477     -0.239558     -2.472683
  H       3.716516     -1.974939     -1.205222
55
Coordinates from ORCA-job CuL E -2715.867144480515
  C      -1.350518     -1.212684      1.766219
  C      -0.798891     -2.011130      0.579147
  N       0.437503     -1.440515      0.021806
  C       1.466048     -1.223537      1.057745
  C       0.980689     -0.412852      2.266068
  C      -1.707999      0.227516      1.377592
  N      -0.560587      1.031905      0.914660
  C       0.554274      1.006963      1.874476
  C      -0.247746     -1.125729      2.809775
  C       2.094979     -0.336905      3.296015
  C      -2.590248     -1.906229      2.305182
  O      -0.336396     -1.566226      3.927447
  C      -0.984935      2.417448      0.591447
  C       0.972753     -2.266544     -1.089662
  C      -1.612037      2.364729     -0.768887
  C      -2.991530      2.301641     -0.958042
  C      -3.510487      2.084396     -2.235248
  C      -2.660615      1.916891     -3.331934
  C      -1.283852      1.991370     -3.158900
  C      -0.747481      2.211221     -1.877413
  C       1.792428     -1.353908     -1.950590
  C       1.099318     -0.443697     -2.780737
  C       1.811246      0.538959     -3.490699
  C       3.193451      0.618138     -3.369611
  C       3.875308     -0.293771     -2.559077
  C       3.180185     -1.272619     -1.847713
  Cu      0.043504      0.324118     -0.890533
  H      -0.587984     -3.044659      0.905486
  H      -1.550798     -2.063998     -0.222972
  H       2.332844     -0.723322      0.599919
  H       1.807338     -2.213021      1.408305
  H      -2.142453      0.733700      2.257259
  H      -2.477582      0.219389      0.590896
  H       0.243332      1.554080      2.781929
  H       1.404897      1.550288      1.435820
  H       2.393086     -1.345511      3.613273
  H       2.972519      0.175018      2.875853
  H       1.757363      0.213735      4.184606
  H      -3.373302     -1.946916      1.534511
  H      -2.350023     -2.931446      2.618201
  H      -2.982547     -1.366814      3.178055
  H      -0.089057      3.053333      0.584799
  H      -1.670769      2.789068      1.367469
  H       1.553711     -3.107950     -0.682839
  H       0.118711     -2.670743     -1.650758
  H      -3.662781      2.418230     -0.104313
  H      -4.592751      2.038089     -2.375290
  H      -3.076641      1.747262     -4.326763
  H      -0.625381      1.913336     -4.025063
  H       0.319392      2.464856     -1.771585
  H       0.041229     -0.631255     -3.023841
  H       1.288478      1.218150     -4.165581
  H       3.746423      1.379436     -3.923004
  H       4.962954     -0.238195     -2.475381
  H       3.718426     -1.974082     -1.206520
55
Coordinates from ORCA-job CuL E -2715.867056638658
  C      -1.350482     -1.212381      1.764566
  C      -0.798042     -2.010547      0.577905
  N       0.439800     -1.441062      0.022696
  C       1.466806     -1.225058      1.060043
  C       0.980287     -0.413282      2.267304
  C      -1.706811      0.228104      1.375938
  N      -0.558819      1.031598      0.913202
  C       0.555149      1.006432      1.874271
  C      -0.249043     -1.125756      2.809645
  C       2.093318     -0.337303      3.298592
  C      -2.591244     -1.905337      2.302014
  O      -0.338806     -1.567223      3.926792
  C      -0.982065      2.417541      0.590127
  C       0.975454     -2.267504     -1.088000
  C      -1.611011      2.365362     -0.769334
  C      -2.990758      2.301986     -0.956624
  C      -3.511583      2.084099     -2.232900
  C      -2.663475      1.916500     -3.330828
  C      -1.286432      1.991731     -3.159925
  C      -0.748127      2.212056     -1.879330
  C       1.793718     -1.354492     -1.949663
  C       1.098839     -0.444463     -2.778569
  C       1.809304      0.538699     -3.489655
  C       3.191505      0.618884     -3.370131
  C       3.874923     -0.292581     -2.560445
  C       3.181495     -1.272072     -1.848414
  Cu      0.046831      0.325187     -0.889784
  H      -0.589187     -3.044754      0.903314
  H      -1.549111     -2.062536     -0.225082
  H       2.335146     -0.726235      0.603540
  H       1.806315     -2.214844      1.411596
  H      -2.141106      0.734754      2.255447
  H      -2.476713      0.220736      0.589524
  H       0.243736      1.554519      2.780996
  H       1.406416      1.548908      1.435943
  H       2.390278     -1.345761      3.617408
  H       2.971902      0.173325      2.879020
  H       1.755063      0.214497      4.186230
  H      -3.372451     -1.948125      1.529589
  H      -2.351244     -2.929706      2.618093
  H      -2.986219     -1.364275      3.172677
  H      -0.085479      3.052341      0.582030
  H      -1.666298      2.789689      1.367297
  H       1.556980     -3.108391     -0.681004
  H       0.121964     -2.672700     -1.649117
  H      -3.661100      2.418804     -0.102173
  H      -4.594046      2.037349     -2.371271
  H      -3.081170      1.746460     -4.324882
  H      -0.629202      1.914793     -4.027141
  H       0.318823      2.465778     -1.775028
  H       0.040822     -0.633003     -3.021157
  H       1.285119      1.217070     -4.164258
  H       3.743312      1.380558     -3.924154
  H       4.962626     -0.236198     -2.477958
  H       3.721099     -1.973171     -1.207970
55
Coordinates from ORCA-job CuL E -2715.867056941553
  C      -1.350369     -1.212451      1.763990
  C      -0.797410     -2.011014      0.578002
  N       0.440565     -1.441821      0.022736
  C       1.467121     -1.226034      1.060550
  C       0.980415     -0.413492      2.267336
  C      -1.706528      0.227820      1.374455
  N      -0.558408      1.031271      0.912557
  C       0.555599      1.006135      1.873799
  C      -0.249304     -1.125465      2.809483
  C       2.093112     -0.337334      3.299033
  C      -2.591363     -1.905018      2.301327
  O      -0.339873     -1.565569      3.927027
  C      -0.981172      2.417205      0.589209
  C       0.976413     -2.268520     -1.087636
  C      -1.610540      2.365593     -0.769980
  C      -2.990399      2.302677     -0.956184
  C      -3.512406      2.084985     -2.231966
  C      -2.665216      1.917194     -3.330565
  C      -1.288090      1.992267     -3.160708
  C      -0.748433      2.212319     -1.880666
  C       1.793982     -1.355126     -1.949484
  C       1.098576     -0.444917     -2.777763
  C       1.808848      0.538901     -3.488447
  C       3.190954      0.619510     -3.369007
  C       3.874749     -0.292110     -2.559858
  C       3.181714     -1.272074     -1.848227
  Cu      0.048256      0.325214     -0.889808
  H      -0.588590     -3.045208      0.903724
  H      -1.548302     -2.064046     -0.225088
  H       2.336138     -0.728000      0.604370
  H       1.805837     -2.215856      1.412734
  H      -2.142047      0.734703      2.253263
  H      -2.476002      0.220199      0.587546
  H       0.244382      1.554710      2.780331
  H       1.407346      1.548411      1.435430
  H       2.389874     -1.345653      3.618449
  H       2.972033      0.172868      2.879621
  H       1.754733      0.214838      4.186389
  H      -3.372170     -1.948560      1.528537
  H      -2.351489     -2.929055      2.618509
  H      -2.986988     -1.363314      3.171304
  H      -0.084419      3.051674      0.580903
  H      -1.665050      2.789742      1.366497
  H       1.558351     -3.109060     -0.680655
  H       0.123330     -2.674501     -1.648836
  H      -3.660152      2.419746     -0.101294
  H      -4.595011      2.038788     -2.369438
  H      -3.083756      1.747198     -4.324260
  H      -0.631787      1.915586     -4.028624
  H       0.318709      2.465911     -1.777210
  H       0.040363     -0.633047     -3.019912
  H       1.284440      1.217721     -4.162439
  H       3.742484      1.381688     -3.922602
  H       4.962429     -0.235291     -2.477332
  H       3.721520     -1.973335     -1.208121
55
Coordinates from ORCA-job CuL E -2715.867080236672
  C      -1.350252     -1.212432      1.763425
  C      -0.796630     -2.011931      0.578429
  N       0.441410     -1.443270      0.022772
  C       1.467519     -1.227589      1.061084
  C       0.980714     -0.413823      2.267095
  C      -1.706197      0.227435      1.372289
  N      -0.557780      1.030801      0.911488
  C       0.556364      1.005690      1.872767
  C      -0.249725     -1.124421      2.809399
  C       2.093048     -0.337479      3.299215
  C      -2.591378     -1.904547      2.300849
  O      -0.340852     -1.563552      3.927231
  C      -0.979956      2.416694      0.587607
  C       0.977657     -2.270300     -1.087167
  C      -1.610016      2.365659     -0.771232
  C      -2.990098      2.303443     -0.955786
  C      -3.513832      2.086638     -2.230984
  C      -2.667846      1.918880     -3.330587
  C      -1.290604      1.993371     -3.162166
  C      -0.749090      2.212699     -1.882852
  C       1.794308     -1.356232     -1.949193
  C       1.098188     -0.445548     -2.776444
  C       1.808198      0.539489     -3.485967
  C       3.190206      0.620742     -3.366538
  C       3.874522     -0.291359     -2.558411
  C       3.181940     -1.272285     -1.847726
  Cu      0.050447      0.325047     -0.889956
  H      -0.587594     -3.045868      0.905084
  H      -1.547165     -2.066340     -0.224908
  H       2.337307     -0.730682      0.605070
  H       1.805155     -2.217395      1.414287
  H      -2.143513      0.734758      2.249977
  H      -2.474666      0.219124      0.584346
  H       0.245553      1.554972      2.779022
  H       1.408554      1.547456      1.434283
  H       2.389450     -1.345692      3.619298
  H       2.972368      0.172171      2.879943
  H       1.754607      0.215207      4.186217
  H      -3.371826     -1.948959      1.527741
  H      -2.351607     -2.928213      2.619216
  H      -2.987509     -1.362036      3.170092
  H      -0.082945      3.050750      0.579002
  H      -1.663366      2.790020      1.364933
  H       1.560430     -3.110137     -0.680055
  H       0.125086     -2.677588     -1.648235
  H      -3.658845      2.420452     -0.100092
  H      -4.596621      2.041227     -2.367167
  H      -3.087472      1.749301     -4.323890
  H      -0.635628      1.916635     -4.031096
  H       0.318252      2.465874     -1.780561
  H       0.039755     -0.633180     -3.018184
  H       1.283552      1.219347     -4.158754
  H       3.741328      1.383877     -3.919207
  H       4.962159     -0.233918     -2.475750
  H       3.721936     -1.973978     -1.208252
55
Coordinates from ORCA-job CuL E -2715.867081003670
  C      -1.350154     -1.212700      1.763504
  C      -0.796298     -2.012951      0.579049
  N       0.441553     -1.444395      0.022890
  C       1.467690     -1.228345      1.061204
  C       0.980909     -0.414009      2.266792
  C      -1.706326      0.226838      1.371280
  N      -0.557724      1.030373      0.910926
  C       0.556481      1.005390      1.872074
  C      -0.249681     -1.124004      2.809464
  C       2.093236     -0.337255      3.298887
  C      -2.591095     -1.904767      2.301340
  O      -0.341142     -1.561852      3.927794
  C      -0.979554      2.416244      0.586668
  C       0.978087     -2.271544     -1.086902
  C      -1.609647      2.365546     -0.772176
  C      -2.989783      2.304040     -0.956187
  C      -3.514156      2.088279     -2.231291
  C      -2.668538      1.920913     -3.331286
  C      -1.291251      1.994556     -3.163249
  C      -0.749182      2.212963     -1.884055
  C       1.794246     -1.357054     -1.949018
  C       1.097685     -0.446057     -2.775612
  C       1.807336      0.539876     -3.484208
  C       3.189332      0.621595     -3.364878
  C       3.874076     -0.290899     -2.557552
  C       3.181830     -1.272580     -1.847515
  Cu      0.051613      0.324608     -0.890080
  H      -0.586733     -3.046479      0.906655
  H      -1.546700     -2.068183     -0.224341
  H       2.337536     -0.731750      0.604987
  H       1.805132     -2.218019      1.414955
  H      -2.144494      0.734393      2.248413
  H      -2.474331      0.217667      0.582758
  H       0.245853      1.554931      2.778244
  H       1.408649      1.547026      1.433429
  H       2.389854     -1.345377      3.619053
  H       2.972435      0.172554      2.879541
  H       1.754726      0.215485      4.185825
  H      -3.371751     -1.949266      1.528445
  H      -2.351242     -2.928418      2.619694
  H      -2.986889     -1.362142      3.170658
  H      -0.082367      3.050077      0.578189
  H      -1.662932      2.790111      1.363784
  H       1.561550     -3.110813     -0.679595
  H       0.125712     -2.679666     -1.647636
  H      -3.658027      2.420600     -0.100080
  H      -4.597025      2.043481     -2.367070
  H      -3.088470      1.752173     -4.324607
  H      -0.636759      1.917619     -4.032560
  H       0.318306      2.465545     -1.782005
  H       0.039173     -0.633629     -3.017170
  H       1.282468      1.220396     -4.156149
  H       3.740089      1.385457     -3.916905
  H       4.961686     -0.233042     -2.474889
  H       3.722006     -1.974540     -1.208488
55
Coordinates from ORCA-job CuL E -2715.867078864860
  C      -1.349979     -1.212996      1.763832
  C      -0.796124     -2.014000      0.579728
  N       0.441509     -1.445478      0.023185
  C       1.467881     -1.228740      1.061231
  C       0.981131     -0.414154      2.266568
  C      -1.706394      0.226304      1.370823
  N      -0.557699      1.029951      0.910485
  C       0.556451      1.005156      1.871589
  C      -0.249441     -1.123780      2.809635
  C       2.093548     -0.336952      3.298538
  C      -2.590763     -1.905053      2.302094
  O      -0.340962     -1.560896      3.928293
  C      -0.979517      2.415759      0.585917
  C       0.978250     -2.272652     -1.086594
  C      -1.609530      2.365124     -0.773033
  C      -2.989732      2.304107     -0.957004
  C      -3.514178      2.089761     -2.232314
  C      -2.668504      1.923286     -3.332442
  C      -1.291171      1.996130     -3.164341
  C      -0.749211      2.213290     -1.884915
  C       1.794028     -1.357855     -1.948778
  C       1.097019     -0.446539     -2.774721
  C       1.806193      0.540185     -3.482544
  C       3.188237      0.622312     -3.363438
  C       3.873436     -0.290611     -2.556991
  C       3.181581     -1.273059     -1.847507
  Cu      0.052653      0.324026     -0.890132
  H      -0.586068     -3.047082      0.908340
  H      -1.546446     -2.069508     -0.223683
  H       2.337414     -0.732029      0.604592
  H       1.805601     -2.218212      1.415291
  H      -2.144808      0.734119      2.247647
  H      -2.473933      0.216324      0.581897
  H       0.245785      1.554705      2.777749
  H       1.408461      1.546838      1.432846
  H       2.390578     -1.345021      3.618488
  H       2.972418      0.173356      2.879109
  H       1.754885      0.215606      4.185527
  H      -3.371847     -1.949053      1.529605
  H      -2.350929     -2.928928      2.619760
  H      -2.985773     -1.362653      3.171899
  H      -0.082240      3.049554      0.577588
  H      -1.662982      2.790029      1.362793
  H       1.562437     -3.111296     -0.678967
  H       0.125891     -2.681448     -1.646824
  H      -3.657720      2.419867     -0.100607
  H      -4.597060      2.045406     -2.368146
  H      -3.088357      1.755812     -4.326020
  H      -0.636777      1.919272     -4.033735
  H       0.318417      2.465117     -1.782578
  H       0.038597     -0.634560     -3.016358
  H       1.281071      1.221046     -4.153913
  H       3.738578      1.386830     -3.914969
  H       4.961041     -0.232469     -2.474518
  H       3.722052     -1.975246     -1.208978
55
Coordinates from ORCA-job CuL E -2715.867031070410
  C      -1.349822     -1.213180      1.764096
  C      -0.796054     -2.014546      0.580111
  N       0.441441     -1.445938      0.023463
  C       1.468029     -1.228608      1.061202
  C       0.981237     -0.414164      2.266569
  C      -1.706336      0.226043      1.370851
  N      -0.557662      1.029747      0.910360
  C       0.556325      1.005122      1.871593
  C      -0.249219     -1.123830      2.809797
  C       2.093743     -0.336729      3.298423
  C      -2.590629     -1.905145      2.302539
  O      -0.340688     -1.560793      3.928547
  C      -0.979715      2.415463      0.585682
  C       0.978177     -2.273090     -1.086398
  C      -1.609615      2.364694     -0.773356
  C      -2.989849      2.303728     -0.957588
  C      -3.514009      2.090246     -2.233147
  C      -2.668115      1.924666     -3.333234
  C      -1.290753      1.997260     -3.164897
  C      -0.749203      2.213521     -1.885150
  C       1.793814     -1.358250     -1.948643
  C       1.096608     -0.446718     -2.774236
  C       1.805533      0.540284     -3.481840
  C       3.187626      0.622482     -3.362945
  C       3.873027     -0.290724     -2.557002
  C       3.181378     -1.273505     -1.847715
  Cu      0.053208      0.323611     -0.890138
  H      -0.585790     -3.047388      0.909233
  H      -1.546417     -2.070025     -0.223240
  H       2.337149     -0.731483      0.604258
  H       1.806314     -2.217915      1.415220
  H      -2.144609      0.733993      2.247646
  H      -2.473666      0.215736      0.581775
  H       0.245441      1.554469      2.777791
  H       1.408187      1.546989      1.432931
  H       2.391159     -1.344780      3.618072
  H       2.972307      0.174066      2.878964
  H       1.754918      0.215541      4.185528
  H      -3.372109     -1.948317      1.530406
  H      -2.351014     -2.929356      2.619315
  H      -2.984885     -1.363149      3.172932
  H      -0.082519      3.049414      0.577432
  H      -1.663318      2.789741      1.362442
  H       1.562713     -3.111396     -0.678542
  H       0.125723     -2.682094     -1.646305
  H      -3.657859      2.418909     -0.101130
  H      -4.596858      2.045897     -2.369248
  H      -3.087764      1.758076     -4.327052
  H      -0.636192      1.920868     -4.034202
  H       0.318496      2.464834     -1.782347
  H       0.038360     -0.635219     -3.016116
  H       1.280287      1.221098     -4.153126
  H       3.737757      1.387266     -3.914314
  H       4.960650     -0.232610     -2.474776
  H       3.722060     -1.975812     -1.209495
55
Coordinates from ORCA-job CuL E -2715.867101816996
  C      -1.349391     -1.213096      1.764334
  C      -0.796149     -2.015571      0.580594
  N       0.441089     -1.447020      0.023605
  C       1.468446     -1.228185      1.060338
  C       0.981757     -0.414175      2.265912
  C      -1.705789      0.226003      1.370533
  N      -0.557113      1.029538      0.909453
  C       0.556457      1.005186      1.871045
  C      -0.248475     -1.123768      2.809625
  C       2.094602     -0.336471      3.297381
  C      -2.590491     -1.904369      2.303337
  O      -0.339832     -1.560278      3.928634
  C      -0.979827      2.415031      0.584428
  C       0.977379     -2.274111     -1.086680
  C      -1.610282      2.363352     -0.774439
  C      -2.990836      2.302048     -0.958045
  C      -3.515420      2.090381     -2.233659
  C      -2.669954      1.926546     -3.334282
  C      -1.292366      1.998674     -3.166684
  C      -0.750580      2.213645     -1.886767
  C       1.793382     -1.359324     -1.948555
  C       1.096809     -0.446040     -2.773004
  C       1.806474      0.542077     -3.478240
  C       3.188667      0.623241     -3.358912
  C       3.873346     -0.292194     -2.555018
  C       3.180963     -1.275887     -1.847597
  Cu      0.054944      0.322630     -0.890774
  H      -0.585592     -3.047800      0.911124
  H      -1.546703     -2.070586     -0.222543
  H       2.336361     -0.729924      0.602426
  H       1.808314     -2.217080      1.414093
  H      -2.143378      0.734465      2.247310
  H      -2.472383      0.215103      0.580987
  H       0.245030      1.553911      2.777401
  H       1.408013      1.547457      1.432645
  H       2.392873     -1.344596      3.616009
  H       2.972385      0.175557      2.877842
  H       1.755484      0.214944      4.184900
  H      -3.373272     -1.944512      1.532368
  H      -2.351964     -2.929761      2.617175
  H      -2.982118     -1.363600      3.175662
  H      -0.082917      3.049485      0.575821
  H      -1.663461      2.789397      1.361133
  H       1.562480     -3.111756     -0.678187
  H       0.124527     -2.683173     -1.645877
  H      -3.658058      2.415859     -0.100788
  H      -4.598294      2.045812     -2.369444
  H      -3.089966      1.761622     -4.328237
  H      -0.638357      1.922756     -4.036449
  H       0.317446      2.463600     -1.783945
  H       0.039214     -0.634980     -3.016917
  H       1.282103      1.224506     -4.148470
  H       3.739159      1.389045     -3.908495
  H       4.961014     -0.235163     -2.472687
  H       3.721251     -1.979449     -1.210420
55
Coordinates from ORCA-job CuL E -2715.867102221629
  C      -1.349671     -1.212999      1.763952
  C      -0.796045     -2.014638      0.580064
  N       0.441441     -1.446099      0.023473
  C       1.468190     -1.228359      1.060929
  C       0.981373     -0.414131      2.266434
  C      -1.705909      0.226251      1.370627
  N      -0.557199      1.029817      0.909990
  C       0.556503      1.005246      1.871542
  C      -0.249083     -1.123816      2.809666
  C       2.093917     -0.336794      3.298255
  C      -2.590782     -1.904523      2.302387
  O      -0.340552     -1.560891      3.928379
  C      -0.979481      2.415446      0.585208
  C       0.977877     -2.273253     -1.086560
  C      -1.609852      2.364253     -0.773628
  C      -2.990224      2.302961     -0.957400
  C      -3.514751      2.089670     -2.232807
  C      -2.669256      1.924504     -3.333222
  C      -1.291791      1.997268     -3.165456
  C      -0.749911      2.213489     -1.885832
  C       1.793741     -1.358516     -1.948657
  C       1.096887     -0.446185     -2.773772
  C       1.806243      0.541176     -3.480517
  C       3.188360      0.622764     -3.361449
  C       3.873367     -0.291450     -2.556353
  C       3.181339     -1.274484     -1.847784
  Cu      0.054030      0.323355     -0.890417
  H      -0.585885     -3.047396      0.909455
  H      -1.546492     -2.069961     -0.223201
  H       2.336977     -0.730834      0.603787
  H       1.807035     -2.217547      1.414769
  H      -2.143934      0.734371      2.247434
  H      -2.473043      0.215997      0.581435
  H       0.245291      1.554343      2.777766
  H       1.408361      1.547265      1.433136
  H       2.391494     -1.344894      3.617608
  H       2.972339      0.174282      2.878853
  H       1.754978      0.215199      4.185489
  H      -3.372659     -1.946376      1.530587
  H      -2.351815     -2.929230      2.618076
  H      -2.984147     -1.363004      3.173476
  H      -0.082406      3.049597      0.576604
  H      -1.662960      2.789642      1.362117
  H       1.562416     -3.111494     -0.678553
  H       0.125257     -2.682054     -1.646352
  H      -3.657867      2.417899     -0.100616
  H      -4.597628      2.045030     -2.368578
  H      -3.089267      1.758073     -4.326918
  H      -0.637555      1.921041     -4.035034
  H       0.317911      2.464371     -1.783267
  H       0.038877     -0.634735     -3.016584
  H       1.281382      1.222744     -4.151336
  H       3.738737      1.387887     -3.912099
  H       4.961024     -0.233936     -2.474109
  H       3.721817     -1.977341     -1.210001
55
Coordinates from ORCA-job CuL E -2715.867101214185
  C      -1.349732     -1.212979      1.763768
  C      -0.795903     -2.014443      0.579949
  N       0.441675     -1.445923      0.023544
  C       1.468191     -1.228413      1.061235
  C       0.981228     -0.414144      2.266699
  C      -1.705833      0.226308      1.370454
  N      -0.557054      1.029857      0.910042
  C       0.556479      1.005230      1.871792
  C      -0.249324     -1.123865      2.809696
  C       2.093605     -0.336901      3.298704
  C      -2.590938     -1.904464      2.301964
  O      -0.340940     -1.561031      3.928339
  C      -0.979138      2.415530      0.585284
  C       0.978180     -2.273111     -1.086396
  C      -1.609633      2.364465     -0.773472
  C      -2.989978      2.303164     -0.957176
  C      -3.514604      2.089474     -2.232482
  C      -2.669211      1.924068     -3.332940
  C      -1.291761      1.997062     -3.165258
  C      -0.749766      2.213523     -1.885751
  C       1.793906     -1.358354     -1.948609
  C       1.096817     -0.446248     -2.773753
  C       1.805960      0.540940     -3.481008
  C       3.188065      0.622685     -3.362199
  C       3.873300     -0.291208     -2.556904
  C       3.181518     -1.274125     -1.847965
  Cu      0.054213      0.323461     -0.890324
  H      -0.585882     -3.047341      0.909070
  H      -1.546279     -2.069951     -0.223384
  H       2.337222     -0.731041      0.604355
  H       1.806833     -2.217651      1.415117
  H      -2.144083      0.734383      2.247191
  H      -2.473035      0.216225      0.581289
  H       0.245135      1.554376      2.777945
  H       1.408407      1.547243      1.433548
  H       2.391002     -1.344983      3.618283
  H       2.972226      0.173930      2.879414
  H       1.754624      0.215231      4.185837
  H      -3.372592     -1.946545      1.529948
  H      -2.352013     -2.929069      2.618003
  H      -2.984682     -1.362821      3.172807
  H      -0.081966      3.049551      0.576577
  H      -1.662503      2.789694      1.362307
  H       1.562617     -3.111469     -0.678509
  H       0.125635     -2.681885     -1.646339
  H      -3.657675      2.418384     -0.100463
  H      -4.597492      2.044772     -2.368154
  H      -3.089334      1.757297     -4.326529
  H      -0.637523      1.920919     -4.034840
  H       0.318034      2.464513     -1.783281
  H       0.038723     -0.634830     -3.016298
  H       1.280833      1.222194     -4.151950
  H       3.738303      1.387656     -3.913200
  H       4.960965     -0.233549     -2.474850
  H       3.722181     -1.976787     -1.210127
