! PBE0 Grid4 D3BJ def2-svp
! TightOpt
! CPCM(water)

%pal nprocs 1
end

* xyz 0 2
6       -0.773059941      1.340185771      0.621770133
6        0.733809624      1.055128501      0.563155431
7        1.111907138     -0.263384050      1.091958868
6        0.319443947     -1.349198939      0.490821749
6       -1.198900749     -1.128691553      0.522726648
6       -1.324053676      1.337660213      2.054109988
7       -1.219305919      0.044882687      2.751086674
6       -1.761287846     -1.061474637      1.949182253
6       -1.468008427      0.216860429     -0.124682275
6       -1.878134593     -2.263576264     -0.226174110
6       -1.047393367      2.694916127     -0.010521187
8       -2.149358156      0.373685265     -1.109030460
6       -1.959954329      0.088466639      4.043853326
6        2.563975114     -0.472036290      0.827321041
6       -3.429339698      0.383466398      3.911498304
6       -4.357882437     -0.665151764      3.861034449
6       -5.720303981     -0.404946376      3.727036131
6       -6.173590576      0.913045230      3.646054169
6       -5.259116234      1.963731549      3.709479729
6       -3.896592747      1.701357686      3.845556206
6        2.947332129     -0.418535949     -0.626677703
6        2.849122090     -1.553712493     -1.439776644
6        3.193914837     -1.490855425     -2.789167885
6        3.649629452     -0.294691759     -3.342171594
6        3.767124691      0.839639555     -2.536869050
6        3.420115776      0.775096755     -1.188759966
29       0.762615590     -0.297929199      3.103433367
1        1.060809395      1.125570758     -0.490249380
1        1.282144753      1.816693451      1.139156169
1        0.562019442     -2.286353029      1.013203445
1        0.625474966     -1.469957870     -0.564658196
1       -2.388380269      1.633795324      2.012171731
1       -0.794907803      2.096756422      2.648931390
1       -2.859455282     -0.952979394      1.886207699
1       -1.542979265     -1.999392305      2.482900008
1       -1.527584007     -2.304364940     -1.266774112
1       -1.658084049     -3.226775010      0.256748385
1       -2.967387790     -2.119441708     -0.240935590
1       -0.541329959      3.491126747      0.554612753
1       -0.685920449      2.717256527     -1.047954819
1       -2.126011097      2.904201722     -0.023141406
1       -1.465522812      0.855639401      4.654163183
1       -1.820336302     -0.891595027      4.532209211
1        3.111730719      0.307739733      1.384496944
1        2.816857760     -1.449891559      1.258022125
1       -4.008156810     -1.698982023      3.931211899
1       -6.431213583     -1.234048311      3.689134377
1       -7.241716114      1.119644507      3.540658487
1       -5.607002560      2.998114613      3.653573249
1       -3.182000472      2.525899011      3.902793204
1        2.498762245     -2.493104404     -1.005703221
1        3.105684295     -2.384816267     -3.411355090
1        3.920660395     -0.246155491     -4.399933954
1        4.133884924      1.778248452     -2.959629633
1        3.521086966      1.664693880     -0.560710733
17       2.378930852      1.147378725      3.769733579
17       0.563154814     -2.083243034      4.488466320
*