! PBE0 Grid4 D3BJ def2-svp
! TightOpt
! CPCM(water)

%pal nprocs 1
end

* xyz 1 2
6        0.823353094      2.615296865     -3.173646639
6       -0.435191122      3.402699359     -2.531968300
7       -0.164815963      4.063895483     -1.203130758
6        0.979725609      4.921061503     -1.357558458
6        2.281830718      4.147531914     -1.798328602
6        1.325669507      1.361500738     -2.346132541
7        1.749876943      1.791957198     -0.989939144
6        2.678509502      2.931873506     -0.894960027
6        1.951420866      3.621603090     -3.182591983
6        3.433544308      5.151277811     -1.808750318
6        0.447425761      2.149653635     -4.581532841
8        2.497597625      4.012443417     -4.188658362
6        1.413019651      0.324875940     -0.191586272
6       -1.654306063      4.464681906     -0.869457393
6        2.291202775     -0.797497624     -0.617959886
17       0.897618057      3.403093725      2.138758626
6        2.261644521     -1.224915463     -1.958779131
6        3.191094656     -2.160373943     -2.390983355
6        4.159697915     -2.651701137     -1.507462619
6        4.202171351     -2.202532433     -0.185319896
6       -2.209454082      5.561052625     -1.729142564
6        3.279673219     -1.264296668      0.265036640
6       -1.735279587      6.867807522     -1.559870884
6       -2.230848394      7.893425005     -2.358948601
6       -3.205365221      7.621912190     -3.323400149
6       -3.683448572      6.322578668     -3.487303890
29       0.305628258      2.614516063      0.066034862
6       -3.187047929      5.290956234     -2.690096644
1       -0.702124212      4.183353178     -3.263024621
1       -1.284175165      2.714911304     -2.455579842
1        0.778014795      5.702535362     -2.111124280
1        1.211714497      5.404177651     -0.395238085
1        2.106590352      0.768510608     -2.852491409
1        0.504864265      0.647680870     -2.327770267
1        3.645360115      2.555321457     -1.266060052
1        2.777784823      3.283210941      0.141904321
1        3.095972389      6.152025313     -1.505784577
1        4.231752704      4.848239276     -1.116293002
1        3.859372968      5.225361472     -2.817396512
1       -0.594953157      2.400730488     -4.826048998
1        1.094699263      2.630097995     -5.326357506
1        0.553827193      1.060577456     -4.684362631
1        0.428357529      0.374078431      0.337373958
1        1.939091842     -0.229838860      0.836938335
1       -1.685375755      4.832436134      0.251542518
1       -2.291182802      3.437960465     -0.975072851
1        1.501419783     -0.838424272     -2.641330071
1        3.165952558     -2.511869626     -3.424760491
1        4.891815777     -3.383146917     -1.857183129
1        4.969296041     -2.578666724      0.495183482
1        3.302554016     -0.889286863      1.288747343
1       -0.974082122      7.077347655     -0.803520419
1       -1.858334078      8.911905409     -2.227207952
1       -3.594362320      8.429716024     -3.947818635
1       -4.446609182      6.107580429     -4.238707582
1       -3.563760422      4.272054471     -2.815669007
*